-------------------------------------------------------
          Amber 18 PMEMD                              2018
          -------------------------------------------------------

  [-O]verwriting output

File Assignments:

 Here is the input file:

Implicit solvent constant pH molecular dynamics window_02 ph=8.0
 &cntrl
   imin=0, 			! not minimization
   irest=1, 		! restart from heating step
   ntx=5,			! read in velocities and coordinates
   ntpr=1000, 		! write mdout every 2 ps
   ntwx=1000, 		! write trajectory every 2 ps
   nstlim=1000000,	! run for 2M steps (2 ns)
   dt=0.002, 		! time stepn (ps)
   ntt=3, 			! Langevin thermostat
   tempi=300,		! Initial temperature (K)
   temp0=300, 		! Target temperature (K)
   tautp=2.0, 		! Langevin thermostat Tau (ps)
   ig=-1,			! Use a randomly chosen seed (based on system clock)
   ntp=0, 			! Constant volume (no barostat)
   ntc=2, 			! SHAKE for hydrogens only
   ntf=2, 			! Omit bond interactions for hydrogens
   cut=999.0,		! non-bond cutoff turned off
					! (not supported for GB on pmemd)
   ntb=0, 			! No periodic boundary (not supported under GB)
   igb=2, 			! GB model 2 See "Onufriev, A. et. al. Proteins,
                    !                    2004, 55, 383-394"
   saltcon=0.1,		! GB salt concentration (M)
   nrespa=1, 		! Use same frequency for both slow and fast non-bond terms
   tol=0.000001, 	! Ewald tolerance
   icnstph=1,		! Use constant pH module
   solvph=8.0, 		! solvent pH setting
   ntcnstph=2,		! attempt switches every ntcnstph time steps
					! should ensure number titrated residues * dt * ntcnstph <= 100
   gamma_ln=5.0, 	! Gamma parameter for langevin thermostat (1/ps)
   ntwr=25000, 		! write restart file every 50 ps
   ioutfm=1,		! use NETCDF output format
  /

Note: ig = -1. Setting random seed to   532466 based on wallclock time in
      microseconds.

--------------------------------------------------------------------------------
   1.  RESOURCE   USE:
--------------------------------------------------------------------------------

 NATOM  =    6889 NTYPES =      14 NBONH =    3448 MBONA  =    3516
 NTHETH =    7822 MTHETA =    4764 NPHIH =   15355 MPHIA  =   11856
 NHPARM =       0 NPARM  =       0 NNB   =   38059 NRES   =     435
 NBONA  =    3516 NTHETA =    4764 NPHIA =   11856 NUMBND =      46
 NUMANG =     111 NPTRA  =      42 NATYP =      28 NPHB   =       0
 IFBOX  =       0 NMXRS  =      24 IFCAP =       0 NEXTRA =       0
 NCOPY  =       0

 Implicit solvent radii are H(N)-modified Bondi radii (mbondi2)
--------------------------------------------------------------------------------
   2.  CONTROL  DATA  FOR  THE  RUN
--------------------------------------------------------------------------------

default_name

General flags:
     imin    =       0, nmropt  =       0

Nature and format of input:
     ntx     =       5, irest   =       1, ntrx    =       1

Nature and format of output:
     ntxo    =       2, ntpr    =    1000, ntrx    =       1, ntwr    =   25000
     iwrap   =       0, ntwx    =    1000, ntwv    =       0, ntwe    =       0
     ioutfm  =       1, ntwprt  =       0, idecomp =       0, rbornstat=      0

Potential function:
     ntf     =       2, ntb     =       0, igb     =       2, nsnb    =      25
     ipol    =       0, gbsa    =       0, iesp    =       0
     dielc   =   1.00000, cut     = 999.00000, intdiel =   1.00000
     saltcon =   0.10000, offset  =   0.09000, gbalpha=    0.80000
     gbbeta  =   0.00000, gbgamma =   2.90912, surften =   0.00500
     rdt     =   0.00000, rgbmax  =  25.00000  extdiel =  78.50000
     alpb  =        0

Frozen or restrained atoms:
     ibelly  =       0, ntr     =       0

Molecular dynamics:
     nstlim  =   1000000, nscm    =      1000, nrespa  =         1
     t       =   0.00000, dt      =   0.00200, vlimit  =  -1.00000

Langevin dynamics temperature regulation:
     ig      =  532466
     temp0   = 300.00000, tempi   = 300.00000, gamma_ln=   5.00000

SHAKE:
     ntc     =       2, jfastw  =       0
     tol     =   0.00000

Constant pH options:
     ntcnstph =       2
     solvph =   8.00000

--------------------------------------------------------------------------------
   3.  ATOMIC COORDINATES AND VELOCITIES
--------------------------------------------------------------------------------

default_name
 begin time read from input coords =  2000.000 ps

 Number of triangulated 3-point waters found:        0

--------------------------------------------------------------------------------
   4.  RESULTS
 NSTEP =     1000   TIME(PS) =    2002.000  TEMP(K) =   301.36  PRESS =     0.0
 Etot   =     -6411.9937  EKtot   =      5155.8301  EPtot      =    -11567.8237
 BOND   =      1423.7842  ANGLE   =      3563.8074  DIHED      =      4581.1778
 1-4 NB =      1501.3627  1-4 EEL =     16769.1407  VDWAALS    =     -3574.7062
 EELEC  =    -30777.8324  EGB     =     -5054.5580  RESTRAINT  =         0.0000
 ------------------------------------------------------------------------------

      A V E R A G E S   O V E R    1000 S T E P S

 NSTEP =  1000000   TIME(PS) =    4000.000  TEMP(K) =   300.20  PRESS =     0.0
 Etot   =     -6442.5859  EKtot   =      5136.0484  EPtot      =    -11578.6342
 BOND   =      1389.7068  ANGLE   =      3620.7472  DIHED      =      4525.7344
 1-4 NB =      1492.8598  1-4 EEL =     16810.3389  VDWAALS    =     -3433.4511
 EELEC  =    -30792.1251  EGB     =     -5192.4450  RESTRAINT  =         0.0000
 ------------------------------------------------------------------------------

      R M S  F L U C T U A T I O N S

 NSTEP =  1000000   TIME(PS) =    4000.000  TEMP(K) =     3.10  PRESS =     0.0
 Etot   =        85.0506  EKtot   =        52.9936  EPtot      =        65.6459
 BOND   =        32.1393  ANGLE   =        45.8866  DIHED      =        27.0876
 1-4 NB =        16.1385  1-4 EEL =        74.4534  VDWAALS    =        36.5880
 EELEC  =       155.5456  EGB     =       133.1632  RESTRAINT  =         0.0000
 ------------------------------------------------------------------------------
