-------------------------------------------------------
          Amber 18 PMEMD                              2018
          -------------------------------------------------------

  [-O]verwriting output

File Assignments:

 Here is the input file:

Implicit solvent constant pH molecular dynamics window_03 ph=9.0
 &cntrl
   imin=0, 			! not minimization
   irest=1, 		! restart from heating step
   ntx=5,			! read in velocities and coordinates
   ntpr=1000, 		! write mdout every 2 ps
   ntwx=1000, 		! write trajectory every 2 ps
   nstlim=1000000,	! run for 2M steps (2 ns)
   dt=0.002, 		! time stepn (ps)
   ntt=3, 			! Langevin thermostat
   tempi=300,		! Initial temperature (K)
   temp0=300, 		! Target temperature (K)
   tautp=2.0, 		! Langevin thermostat Tau (ps)
   ig=-1,			! Use a randomly chosen seed (based on system clock)
   ntp=0, 			! Constant volume (no barostat)
   ntc=2, 			! SHAKE for hydrogens only
   ntf=2, 			! Omit bond interactions for hydrogens
   cut=999.0,		! non-bond cutoff turned off
					! (not supported for GB on pmemd)
   ntb=0, 			! No periodic boundary (not supported under GB)
   igb=2, 			! GB model 2 See "Onufriev, A. et. al. Proteins,
                    !                    2004, 55, 383-394"
   saltcon=0.1,		! GB salt concentration (M)
   nrespa=1, 		! Use same frequency for both slow and fast non-bond terms
   tol=0.000001, 	! Ewald tolerance
   icnstph=1,		! Use constant pH module
   solvph=9.0, 		! solvent pH setting
   ntcnstph=2,		! attempt switches every ntcnstph time steps
					! should ensure number titrated residues * dt * ntcnstph <= 100
   gamma_ln=5.0, 	! Gamma parameter for langevin thermostat (1/ps)
   ntwr=25000, 		! write restart file every 50 ps
   ioutfm=1,		! use NETCDF output format
  /

Note: ig = -1. Setting random seed to   688786 based on wallclock time in
      microseconds.

--------------------------------------------------------------------------------
   1.  RESOURCE   USE:
--------------------------------------------------------------------------------

 NATOM  =    6889 NTYPES =      14 NBONH =    3448 MBONA  =    3516
 NTHETH =    7822 MTHETA =    4764 NPHIH =   15355 MPHIA  =   11856
 NHPARM =       0 NPARM  =       0 NNB   =   38059 NRES   =     435
 NBONA  =    3516 NTHETA =    4764 NPHIA =   11856 NUMBND =      46
 NUMANG =     111 NPTRA  =      42 NATYP =      28 NPHB   =       0
 IFBOX  =       0 NMXRS  =      24 IFCAP =       0 NEXTRA =       0
 NCOPY  =       0

 Implicit solvent radii are H(N)-modified Bondi radii (mbondi2)
--------------------------------------------------------------------------------
   2.  CONTROL  DATA  FOR  THE  RUN
--------------------------------------------------------------------------------

default_name

General flags:
     imin    =       0, nmropt  =       0

Nature and format of input:
     ntx     =       5, irest   =       1, ntrx    =       1

Nature and format of output:
     ntxo    =       2, ntpr    =    1000, ntrx    =       1, ntwr    =   25000
     iwrap   =       0, ntwx    =    1000, ntwv    =       0, ntwe    =       0
     ioutfm  =       1, ntwprt  =       0, idecomp =       0, rbornstat=      0

Potential function:
     ntf     =       2, ntb     =       0, igb     =       2, nsnb    =      25
     ipol    =       0, gbsa    =       0, iesp    =       0
     dielc   =   1.00000, cut     = 999.00000, intdiel =   1.00000
     saltcon =   0.10000, offset  =   0.09000, gbalpha=    0.80000
     gbbeta  =   0.00000, gbgamma =   2.90912, surften =   0.00500
     rdt     =   0.00000, rgbmax  =  25.00000  extdiel =  78.50000
     alpb  =        0

Frozen or restrained atoms:
     ibelly  =       0, ntr     =       0

Molecular dynamics:
     nstlim  =   1000000, nscm    =      1000, nrespa  =         1
     t       =   0.00000, dt      =   0.00200, vlimit  =  -1.00000

Langevin dynamics temperature regulation:
     ig      =  688786
     temp0   = 300.00000, tempi   = 300.00000, gamma_ln=   5.00000

SHAKE:
     ntc     =       2, jfastw  =       0
     tol     =   0.00000

Constant pH options:
     ntcnstph =       2
     solvph =   9.00000

--------------------------------------------------------------------------------
   3.  ATOMIC COORDINATES AND VELOCITIES
--------------------------------------------------------------------------------

default_name
 begin time read from input coords =  2000.000 ps

 Number of triangulated 3-point waters found:        0

--------------------------------------------------------------------------------
   4.  RESULTS
 NSTEP =     1000   TIME(PS) =    2002.000  TEMP(K) =   297.56  PRESS =     0.0
 Etot   =     -6464.7810  EKtot   =      5090.9004  EPtot      =    -11555.6814
 BOND   =      1332.7265  ANGLE   =      3619.4034  DIHED      =      4557.8040
 1-4 NB =      1486.1330  1-4 EEL =     16669.7723  VDWAALS    =     -3532.8203
 EELEC  =    -30735.9710  EGB     =     -4952.7294  RESTRAINT  =         0.0000
 ------------------------------------------------------------------------------

      A V E R A G E S   O V E R    1000 S T E P S

 NSTEP =  1000000   TIME(PS) =    4000.000  TEMP(K) =   299.91  PRESS =     0.0
 Etot   =     -6398.8987  EKtot   =      5131.0733  EPtot      =    -11529.9720
 BOND   =      1392.1148  ANGLE   =      3619.4343  DIHED      =      4520.4773
 1-4 NB =      1494.2651  1-4 EEL =     16682.4052  VDWAALS    =     -3436.2115
 EELEC  =    -30697.6981  EGB     =     -5104.7591  RESTRAINT  =         0.0000
 ------------------------------------------------------------------------------

      R M S  F L U C T U A T I O N S

 NSTEP =  1000000   TIME(PS) =    4000.000  TEMP(K) =     3.16  PRESS =     0.0
 Etot   =        89.2587  EKtot   =        54.0597  EPtot      =        67.0829
 BOND   =        32.7319  ANGLE   =        44.9333  DIHED      =        26.6734
 1-4 NB =        16.4317  1-4 EEL =        75.2754  VDWAALS    =        32.8780
 EELEC  =       156.1845  EGB     =       126.8422  RESTRAINT  =         0.0000
 ------------------------------------------------------------------------------
