-------------------------------------------------------
          Amber 18 PMEMD                              2018
          -------------------------------------------------------

  [-O]verwriting output

File Assignments:

 Here is the input file:

constant-density heating 100ps
 &cntrl
  imin=0,irest=1,ntx=5,
  nstlim=50000,dt=0.002,
  ntc=2,ntf=2,
  cut=8.0, ntb=2, ntp=1, taup=1.0,
  ntpr=500, ntwx=500,
  ntt=3, gamma_ln=2.0,
  temp0=300.0, ig=-1,
  ntr=1, restraintmask=':1-435',
  restraint_wt=2.0, ioutfm=1,
 /

Note: ig = -1. Setting random seed to   112403 based on wallclock time in
      microseconds.

--------------------------------------------------------------------------------
   1.  RESOURCE   USE:
--------------------------------------------------------------------------------

 getting box info from netcdf restart file
 NATOM  =  143672 NTYPES =      18 NBONH =  139971 MBONA  =    3516
 NTHETH =    7792 MTHETA =    4764 NPHIH =   15832 MPHIA  =   15142
 NHPARM =       0 NPARM  =       0 NNB   =  220268 NRES   =   46208
 NBONA  =    3516 NTHETA =    4764 NPHIA =   15142 NUMBND =      69
 NUMANG =     155 NPTRA  =     196 NATYP =      38 NPHB   =       1
 IFBOX  =       1 NMXRS  =      24 IFCAP =       0 NEXTRA =       0
 NCOPY  =       0

     BOX TYPE: RECTILINEAR

--------------------------------------------------------------------------------
   2.  CONTROL  DATA  FOR  THE  RUN
--------------------------------------------------------------------------------

default_name

General flags:
     imin    =       0, nmropt  =       0

Nature and format of input:
     ntx     =       5, irest   =       1, ntrx    =       1

Nature and format of output:
     ntxo    =       2, ntpr    =     500, ntrx    =       1, ntwr    =   50000
     iwrap   =       0, ntwx    =     500, ntwv    =       0, ntwe    =       0
     ioutfm  =       1, ntwprt  =       0, idecomp =       0, rbornstat=      0

Potential function:
     ntf     =       2, ntb     =       2, igb     =       0, nsnb    =      25
     ipol    =       0, gbsa    =       0, iesp    =       0
     dielc   =   1.00000, cut     =   8.00000, intdiel =   1.00000

Frozen or restrained atoms:
     ibelly  =       0, ntr     =       1
     restraint_wt =   2.00000

Molecular dynamics:
     nstlim  =     50000, nscm    =         0, nrespa  =         1
     t       =   0.00000, dt      =   0.00200, vlimit  =  -1.00000

Langevin dynamics temperature regulation:
     ig      =  112403
     temp0   = 300.00000, tempi   =   0.00000, gamma_ln=   2.00000

Pressure regulation:
     ntp     =       1
     pres0   =   1.00000, comp    =  44.60000, taup    =   1.00000

SHAKE:
     ntc     =       2, jfastw  =       0
     tol     =   0.00001

Ewald parameters:
     verbose =       0, ew_type =       0, nbflag  =       1, use_pme =       1
     vdwmeth =       1, eedmeth =       1, netfrc  =       1
     Box X =  116.334   Box Y =  115.977   Box Z =  115.067
     Alpha =   90.000   Beta  =   90.000   Gamma =   90.000
     NFFT1 =  128       NFFT2 =  120       NFFT3 =  120
     Cutoff=    8.000   Tol   =0.100E-04
     Ewald Coefficient =  0.34864
     Interpolation order =    4

    LOADING THE CONSTRAINED ATOMS AS GROUPS

   5.  REFERENCE ATOM COORDINATES

  default_name
     Mask :1-435; matches  6873 atoms

--------------------------------------------------------------------------------
   3.  ATOMIC COORDINATES AND VELOCITIES
--------------------------------------------------------------------------------

default_name
 begin time read from input coords =   100.000 ps

 Number of triangulated 3-point waters found:    45513

     Sum of charges from parm topology file =  -0.00000023
     Forcing neutrality...

--------------------------------------------------------------------------------
   4.  RESULTS
 NSTEP =      500   TIME(PS) =     101.000  TEMP(K) =   298.94  PRESS =   -52.9
 Etot   =   -379413.2447  EKtot   =     86447.2734  EPtot      =   -465860.5181
 BOND   =      1259.5213  ANGLE   =      3496.0949  DIHED      =      5479.8588
 1-4 NB =      1541.0173  1-4 EEL =     16313.8772  VDWAALS    =     62407.4134
 EELEC  =   -557183.4564  EHBOND  =         0.0000  RESTRAINT  =       825.1553
 EAMBER (non-restraint)  =   -466685.6734
 EKCMT  =     40767.5767  VIRIAL  =     42526.9244  VOLUME     =   1540244.8786
                                                    Density    =         0.9472
 ------------------------------------------------------------------------------

      A V E R A G E S   O V E R     100 S T E P S

 NSTEP =    50000   TIME(PS) =     200.000  TEMP(K) =   299.88  PRESS =   -13.6
 Etot   =   -380726.7300  EKtot   =     86718.6096  EPtot      =   -467445.3396
 BOND   =      1311.4802  ANGLE   =      3471.7791  DIHED      =      5489.8216
 1-4 NB =      1545.7652  1-4 EEL =     16284.4058  VDWAALS    =     61791.8096
 EELEC  =   -558205.6700  EHBOND  =         0.0000  RESTRAINT  =       865.2689
 EAMBER (non-restraint)  =   -468310.6085
 EKCMT  =     41029.1668  VIRIAL  =     41468.5406  VOLUME     =   1465287.5811
                                                    Density    =         0.9959
 ------------------------------------------------------------------------------

      R M S  F L U C T U A T I O N S

 NSTEP =    50000   TIME(PS) =     200.000  TEMP(K) =     0.71  PRESS =    64.9
 Etot   =       591.1404  EKtot   =       204.3921  EPtot      =       625.4397
 BOND   =        28.3900  ANGLE   =        40.7100  DIHED      =        22.0351
 1-4 NB =        13.9794  1-4 EEL =        38.5092  VDWAALS    =       328.8409
 EELEC  =       754.5482  EHBOND  =         0.0000  RESTRAINT  =        19.8716
 EAMBER (non-restraint)  =       605.5681
 EKCMT  =       147.1351  VIRIAL  =      2047.3461  VOLUME     =     20176.8970
                                                    Density    =         0.0133
 ------------------------------------------------------------------------------
