-------------------------------------------------------
          Amber 18 PMEMD                              2018
          -------------------------------------------------------

  [-O]verwriting output

File Assignments:

 Here is the input file:

R206H.rep02.in md input file, ph = 2.526
&cntrl
    imin = 0
    irest = 0
    ntx = 1
    ntpr = 1000
    ntwx = 1000
    nstlim = 1000000
    dt = 0.002
    ntt = 3
    tempi = 300
    temp0 = 300
    tautp = 2.0
    ig = -1
    ntp = 0
    ntc = 2
    ntf = 2
    cut = 999
    ntb = 0
    igb = 8
    saltcon = 0.15
    nrespa = 1
    iphmd = 1
    gamma_ln = 1.0
    solvph = 2.52631578947
    ntwr = 1000000
    ioutfm = 1
/

Note: ig = -1. Setting random seed to   951439 based on wallclock time in
      microseconds.

--------------------------------------------------------------------------------
   1.  RESOURCE   USE:
--------------------------------------------------------------------------------

 NATOM  =    6975 NTYPES =      14 NBONH =    3537 MBONA  =    3514
 NTHETH =    7904 MTHETA =    4761 NPHIH =   16459 MPHIA  =   15108
 NHPARM =       0 NPARM  =       0 NNB   =   38440 NRES   =     435
 NBONA  =    3514 NTHETA =    4761 NPHIA =   15108 NUMBND =      64
 NUMANG =     152 NPTRA  =     197 NATYP =      32 NPHB   =       0
 IFBOX  =       0 NMXRS  =      24 IFCAP =       0 NEXTRA =       0
 NCOPY  =       0

 Implicit solvent radii are ArgH and AspGluO modified Bondi2 radii (mbondi3)
 Replacing prmtop screening parameters with GBn2 (igb=8) values
 PHMD> simulation pH =    2.53
 PHMD> titr grps     =  158
 PHMD> lambda,barrier=    1  0.00  2.50
 PHMD> lambda,barrier=    2  1.00  2.50
 PHMD> lambda,barrier=    3  0.00  2.50
 PHMD> lambda,barrier=    4  1.00  2.50
 PHMD> lambda,barrier=    5  0.00  2.50
 PHMD> lambda,barrier=    6  1.00  2.50
 PHMD> lambda,barrier=    7  0.00  2.50
 PHMD> lambda,barrier=    8  1.00  2.50
 PHMD> lambda,barrier=    9  0.00  2.50
 PHMD> lambda,barrier=   10  0.00  2.50
 PHMD> lambda,barrier=   11  1.00  2.50
 PHMD> lambda,barrier=   12  0.00  2.50
 PHMD> lambda,barrier=   13  1.00  2.50
 PHMD> lambda,barrier=   14  0.00  2.50
 PHMD> lambda,barrier=   15  0.00  2.50
 PHMD> lambda,barrier=   16  0.00  2.50
 PHMD> lambda,barrier=   17  1.00  2.50
 PHMD> lambda,barrier=   18  0.00  2.50
 PHMD> lambda,barrier=   19  1.00  2.50
 PHMD> lambda,barrier=   20  0.00  2.50
 PHMD> lambda,barrier=   21  0.00  2.50
 PHMD> lambda,barrier=   22  1.00  2.50
 PHMD> lambda,barrier=   23  0.00  2.50
 PHMD> lambda,barrier=   24  1.00  2.50
 PHMD> lambda,barrier=   25  0.00  2.50
 PHMD> lambda,barrier=   26  0.00  2.50
 PHMD> lambda,barrier=   27  1.00  2.50
 PHMD> lambda,barrier=   28  0.00  2.50
 PHMD> lambda,barrier=   29  1.00  2.50
 PHMD> lambda,barrier=   30  0.00  2.50
 PHMD> lambda,barrier=   31  1.00  2.50
 PHMD> lambda,barrier=   32  0.00  2.50
 PHMD> lambda,barrier=   33  1.00  2.50
 PHMD> lambda,barrier=   34  0.00  2.50
 PHMD> lambda,barrier=   35  1.00  2.50
 PHMD> lambda,barrier=   36  0.00  2.50
 PHMD> lambda,barrier=   37  1.00  2.50
 PHMD> lambda,barrier=   38  0.00  2.50
 PHMD> lambda,barrier=   39  1.00  2.50
 PHMD> lambda,barrier=   40  0.00  2.50
 PHMD> lambda,barrier=   41  1.00  2.50
 PHMD> lambda,barrier=   42  0.00  2.50
 PHMD> lambda,barrier=   43  1.00  2.50
 PHMD> lambda,barrier=   44  0.00  2.50
 PHMD> lambda,barrier=   45  1.00  2.50
 PHMD> lambda,barrier=   46  0.00  2.50
 PHMD> lambda,barrier=   47  1.00  2.50
 PHMD> lambda,barrier=   48  0.00  2.50
 PHMD> lambda,barrier=   49  0.00  2.50
 PHMD> lambda,barrier=   50  1.00  2.50
 PHMD> lambda,barrier=   51  0.00  2.50
 PHMD> lambda,barrier=   52  1.00  2.50
 PHMD> lambda,barrier=   53  0.00  2.50
 PHMD> lambda,barrier=   54  1.00  2.50
 PHMD> lambda,barrier=   55  0.00  2.50
 PHMD> lambda,barrier=   56  0.00  2.50
 PHMD> lambda,barrier=   57  1.00  2.50
 PHMD> lambda,barrier=   58  0.00  2.50
 PHMD> lambda,barrier=   59  1.00  2.50
 PHMD> lambda,barrier=   60  0.00  2.50
 PHMD> lambda,barrier=   61  0.00  2.50
 PHMD> lambda,barrier=   62  0.00  2.50
 PHMD> lambda,barrier=   63  0.00  2.50
 PHMD> lambda,barrier=   64  0.00  2.50
 PHMD> lambda,barrier=   65  0.00  2.50
 PHMD> lambda,barrier=   66  0.00  2.50
 PHMD> lambda,barrier=   67  1.00  2.50
 PHMD> lambda,barrier=   68  0.00  2.50
 PHMD> lambda,barrier=   69  1.00  2.50
 PHMD> lambda,barrier=   70  0.00  2.50
 PHMD> lambda,barrier=   71  1.00  2.50
 PHMD> lambda,barrier=   72  0.00  2.50
 PHMD> lambda,barrier=   73  0.00  2.50
 PHMD> lambda,barrier=   74  1.00  2.50
 PHMD> lambda,barrier=   75  0.00  2.50
 PHMD> lambda,barrier=   76  1.00  2.50
 PHMD> lambda,barrier=   77  0.00  2.50
 PHMD> lambda,barrier=   78  1.00  2.50
 PHMD> lambda,barrier=   79  0.00  2.50
 PHMD> lambda,barrier=   80  1.00  2.50
 PHMD> lambda,barrier=   81  0.00  2.50
 PHMD> lambda,barrier=   82  0.00  2.50
 PHMD> lambda,barrier=   83  1.00  2.50
 PHMD> lambda,barrier=   84  0.00  2.50
 PHMD> lambda,barrier=   85  0.00  2.50
 PHMD> lambda,barrier=   86  1.00  2.50
 PHMD> lambda,barrier=   87  0.00  2.50
 PHMD> lambda,barrier=   88  1.00  2.50
 PHMD> lambda,barrier=   89  0.00  2.50
 PHMD> lambda,barrier=   90  1.00  2.50
 PHMD> lambda,barrier=   91  0.00  2.50
 PHMD> lambda,barrier=   92  1.00  2.50
 PHMD> lambda,barrier=   93  0.00  2.50
 PHMD> lambda,barrier=   94  0.00  2.50
 PHMD> lambda,barrier=   95  1.00  2.50
 PHMD> lambda,barrier=   96  0.00  2.50
 PHMD> lambda,barrier=   97  1.00  2.50
 PHMD> lambda,barrier=   98  0.00  2.50
 PHMD> lambda,barrier=   99  1.00  2.50
 PHMD> lambda,barrier=  100  0.00  2.50
 PHMD> lambda,barrier=  101  1.00  2.50
 PHMD> lambda,barrier=  102  0.00  2.50
 PHMD> lambda,barrier=  103  0.00  2.50
 PHMD> lambda,barrier=  104  0.00  2.50
 PHMD> lambda,barrier=  105  1.00  2.50
 PHMD> lambda,barrier=  106  0.00  2.50
 PHMD> lambda,barrier=  107  1.00  2.50
 PHMD> lambda,barrier=  108  0.00  2.50
 PHMD> lambda,barrier=  109  0.00  2.50
 PHMD> lambda,barrier=  110  0.00  2.50
 PHMD> lambda,barrier=  111  1.00  2.50
 PHMD> lambda,barrier=  112  0.00  2.50
 PHMD> lambda,barrier=  113  0.00  2.50
 PHMD> lambda,barrier=  114  0.00  2.50
 PHMD> lambda,barrier=  115  0.00  2.50
 PHMD> lambda,barrier=  116  0.00  2.50
 PHMD> lambda,barrier=  117  1.00  2.50
 PHMD> lambda,barrier=  118  0.00  2.50
 PHMD> lambda,barrier=  119  1.00  2.50
 PHMD> lambda,barrier=  120  0.00  2.50
 PHMD> lambda,barrier=  121  1.00  2.50
 PHMD> lambda,barrier=  122  0.00  2.50
 PHMD> lambda,barrier=  123  0.00  2.50
 PHMD> lambda,barrier=  124  0.00  2.50
 PHMD> lambda,barrier=  125  1.00  2.50
 PHMD> lambda,barrier=  126  0.00  2.50
 PHMD> lambda,barrier=  127  1.00  2.50
 PHMD> lambda,barrier=  128  0.00  2.50
 PHMD> lambda,barrier=  129  1.00  2.50
 PHMD> lambda,barrier=  130  0.00  2.50
 PHMD> lambda,barrier=  131  0.00  2.50
 PHMD> lambda,barrier=  132  0.00  2.50
 PHMD> lambda,barrier=  133  1.00  2.50
 PHMD> lambda,barrier=  134  0.00  2.50
 PHMD> lambda,barrier=  135  1.00  2.50
 PHMD> lambda,barrier=  136  0.00  2.50
 PHMD> lambda,barrier=  137  0.00  2.50
 PHMD> lambda,barrier=  138  0.00  2.50
 PHMD> lambda,barrier=  139  0.00  2.50
 PHMD> lambda,barrier=  140  1.00  2.50
 PHMD> lambda,barrier=  141  0.00  2.50
 PHMD> lambda,barrier=  142  1.00  2.50
 PHMD> lambda,barrier=  143  0.00  2.50
 PHMD> lambda,barrier=  144  1.00  2.50
 PHMD> lambda,barrier=  145  0.00  2.50
 PHMD> lambda,barrier=  146  0.00  2.50
 PHMD> lambda,barrier=  147  1.00  2.50
 PHMD> lambda,barrier=  148  0.00  2.50
 PHMD> lambda,barrier=  149  1.00  2.50
 PHMD> lambda,barrier=  150  0.00  2.50
 PHMD> lambda,barrier=  151  1.00  2.50
 PHMD> lambda,barrier=  152  0.00  2.50
 PHMD> lambda,barrier=  153  1.00  2.50
 PHMD> lambda,barrier=  154  0.00  2.50
 PHMD> lambda,barrier=  155  1.00  2.50
 PHMD> lambda,barrier=  156  0.00  2.50
 PHMD> lambda,barrier=  157  0.00  2.50
 PHMD> lambda,barrier=  158  1.00  2.50
--------------------------------------------------------------------------------
   2.  CONTROL  DATA  FOR  THE  RUN
--------------------------------------------------------------------------------

default_name

General flags:
     imin    =       0, nmropt  =       0

Nature and format of input:
     ntx     =       1, irest   =       0, ntrx    =       1

Nature and format of output:
     ntxo    =       2, ntpr    =    1000, ntrx    =       1, ntwr    = 1000000
     iwrap   =       0, ntwx    =    1000, ntwv    =       0, ntwe    =       0
     ioutfm  =       1, ntwprt  =       0, idecomp =       0, rbornstat=      0

Potential function:
     ntf     =       2, ntb     =       0, igb     =       8, nsnb    =      25
     ipol    =       0, gbsa    =       0, iesp    =       0
     dielc   =   1.00000, cut     = 999.00000, intdiel =   1.00000
     saltcon =   0.15000, offset  =   0.19514, surften =   0.00500
     rdt     =   0.00000, rgbmax  =  25.00000  extdiel =  78.50000
     alpb  =        0
     gbalphaH  =   0.78844, gbbetaH   =   0.79870,  gbgammaH  =    0.43733
     gbalphaC  =   0.73376, gbbetaC   =   0.50638,  gbgammaC  =    0.20584
     gbalphaN  =   0.50336, gbbetaN   =   0.31683,  gbgammaN  =    0.19292
     gbalphaOS =   0.86781, gbbetaOS  =   0.87664,  gbgammaOS =    0.38788
     gbalphaP  =   1.00000, gbbetaP   =   0.80000,  gbgammaP  =    4.85000
     gb_alpha_hnu  =   0.53705, gb_beta_hnu   =   0.36286,  gb_gamma_hnu  =    0.11670
     gb_alpha_cnu  =   0.33167, gb_beta_cnu   =   0.19684,  gb_gamma_cnu  =    0.09342
     gb_alpha_nnu  =   0.68631, gb_beta_nnu   =   0.46319,  gb_gamma_nnu  =    0.13872
     gb_alpha_onu  =   0.60634, gb_beta_onu   =   0.46301,  gb_gamma_onu  =    0.14226
     gb_alpha_pnu  =   0.41836, gb_beta_pnu   =   0.29005,  gb_gamma_pnu  =    0.10642

Frozen or restrained atoms:
     ibelly  =       0, ntr     =       0

Molecular dynamics:
     nstlim  =   1000000, nscm    =      1000, nrespa  =         1
     t       =   0.00000, dt      =   0.00200, vlimit  =  -1.00000

Langevin dynamics temperature regulation:
     ig      =  951439
     temp0   = 300.00000, tempi   = 300.00000, gamma_ln=   1.00000

SHAKE:
     ntc     =       2, jfastw  =       0
     tol     =   0.00001

--------------------------------------------------------------------------------
   3.  ATOMIC COORDINATES AND VELOCITIES
--------------------------------------------------------------------------------

default_name
 begin time read from input coords =  2000.000 ps

 Number of triangulated 3-point waters found:        0

--------------------------------------------------------------------------------
   4.  RESULTS
 NSTEP =        0   TIME(PS) =       0.000  TEMP(K) =   359.44  PRESS =     0.0
 Etot   =     -1949.6794  EKtot   =      6209.9790  EPtot      =     -8159.6584
 BOND   =      1396.2245  ANGLE   =      3603.1208  DIHED      =      6720.1650
 1-4 NB =      1509.0480  1-4 EEL =     14612.8862  VDWAALS    =     -3297.1414
 EELEC  =     -2250.9387  EGB     =    -30453.0228  RESTRAINT  =         0.0000
 ------------------------------------------------------------------------------

      A V E R A G E S   O V E R    1000 S T E P S

 NSTEP =  1000000   TIME(PS) =    2000.000  TEMP(K) =   300.13  PRESS =     0.0
 Etot   =     -3315.4354  EKtot   =      5185.2980  EPtot      =     -8500.7334
 BOND   =      1378.5212  ANGLE   =      3696.5157  DIHED      =      6741.0482
 1-4 NB =      1499.3670  1-4 EEL =     15127.3706  VDWAALS    =     -3271.1438
 EELEC  =    -14650.8600  EGB     =    -19021.5522  RESTRAINT  =         0.0000
 ------------------------------------------------------------------------------

      R M S  F L U C T U A T I O N S

 NSTEP =  1000000   TIME(PS) =    2000.000  TEMP(K) =     3.33  PRESS =     0.0
 Etot   =       104.7704  EKtot   =        57.5738  EPtot      =        86.0902
 BOND   =        31.3755  ANGLE   =        47.3680  DIHED      =        28.7351
 1-4 NB =        15.8181  1-4 EEL =       106.5233  VDWAALS    =        31.1989
 EELEC  =      1208.1372  EGB     =      1079.5120  RESTRAINT  =         0.0000
 ------------------------------------------------------------------------------
