-------------------------------------------------------
          Amber 18 PMEMD                              2018
          -------------------------------------------------------

  [-O]verwriting output

File Assignments:

 Here is the input file:

WT.rep04.in md input file, ph = 3.579
&cntrl
    imin = 0
    irest = 0
    ntx = 1
    ntpr = 1000
    ntwx = 1000
    nstlim = 1000000
    dt = 0.002
    ntt = 3
    tempi = 300
    temp0 = 300
    tautp = 2.0
    ig = -1
    ntp = 0
    ntc = 2
    ntf = 2
    cut = 999
    ntb = 0
    igb = 8
    saltcon = 0.15
    nrespa = 1
    iphmd = 1
    gamma_ln = 1.0
    solvph = 3.57894736842
    ntwr = 1000000
    ioutfm = 1
/

Note: ig = -1. Setting random seed to    13845 based on wallclock time in
      microseconds.

--------------------------------------------------------------------------------
   1.  RESOURCE   USE:
--------------------------------------------------------------------------------

 NATOM  =    6981 NTYPES =      14 NBONH =    3542 MBONA  =    3514
 NTHETH =    7914 MTHETA =    4760 NPHIH =   16482 MPHIA  =   15100
 NHPARM =       0 NPARM  =       0 NNB   =   38469 NRES   =     435
 NBONA  =    3514 NTHETA =    4760 NPHIA =   15100 NUMBND =      64
 NUMANG =     152 NPTRA  =     197 NATYP =      32 NPHB   =       0
 IFBOX  =       0 NMXRS  =      24 IFCAP =       0 NEXTRA =       0
 NCOPY  =       0

 Implicit solvent radii are ArgH and AspGluO modified Bondi2 radii (mbondi3)
 Replacing prmtop screening parameters with GBn2 (igb=8) values
 PHMD> simulation pH =    3.58
 PHMD> titr grps     =  156
 PHMD> lambda,barrier=    1  0.00  2.50
 PHMD> lambda,barrier=    2  1.00  2.50
 PHMD> lambda,barrier=    3  0.00  2.50
 PHMD> lambda,barrier=    4  1.00  2.50
 PHMD> lambda,barrier=    5  0.00  2.50
 PHMD> lambda,barrier=    6  1.00  2.50
 PHMD> lambda,barrier=    7  0.00  2.50
 PHMD> lambda,barrier=    8  1.00  2.50
 PHMD> lambda,barrier=    9  0.00  2.50
 PHMD> lambda,barrier=   10  0.00  2.50
 PHMD> lambda,barrier=   11  1.00  2.50
 PHMD> lambda,barrier=   12  0.00  2.50
 PHMD> lambda,barrier=   13  0.00  2.50
 PHMD> lambda,barrier=   14  0.00  2.50
 PHMD> lambda,barrier=   15  1.00  2.50
 PHMD> lambda,barrier=   16  0.00  2.50
 PHMD> lambda,barrier=   17  1.00  2.50
 PHMD> lambda,barrier=   18  0.00  2.50
 PHMD> lambda,barrier=   19  0.00  2.50
 PHMD> lambda,barrier=   20  1.00  2.50
 PHMD> lambda,barrier=   21  0.00  2.50
 PHMD> lambda,barrier=   22  1.00  2.50
 PHMD> lambda,barrier=   23  0.00  2.50
 PHMD> lambda,barrier=   24  0.00  2.50
 PHMD> lambda,barrier=   25  1.00  2.50
 PHMD> lambda,barrier=   26  0.00  2.50
 PHMD> lambda,barrier=   27  1.00  2.50
 PHMD> lambda,barrier=   28  0.00  2.50
 PHMD> lambda,barrier=   29  1.00  2.50
 PHMD> lambda,barrier=   30  0.00  2.50
 PHMD> lambda,barrier=   31  1.00  2.50
 PHMD> lambda,barrier=   32  0.00  2.50
 PHMD> lambda,barrier=   33  1.00  2.50
 PHMD> lambda,barrier=   34  0.00  2.50
 PHMD> lambda,barrier=   35  1.00  2.50
 PHMD> lambda,barrier=   36  0.00  2.50
 PHMD> lambda,barrier=   37  1.00  2.50
 PHMD> lambda,barrier=   38  0.00  2.50
 PHMD> lambda,barrier=   39  1.00  2.50
 PHMD> lambda,barrier=   40  0.00  2.50
 PHMD> lambda,barrier=   41  1.00  2.50
 PHMD> lambda,barrier=   42  0.00  2.50
 PHMD> lambda,barrier=   43  1.00  2.50
 PHMD> lambda,barrier=   44  0.00  2.50
 PHMD> lambda,barrier=   45  1.00  2.50
 PHMD> lambda,barrier=   46  0.00  2.50
 PHMD> lambda,barrier=   47  0.00  2.50
 PHMD> lambda,barrier=   48  1.00  2.50
 PHMD> lambda,barrier=   49  0.00  2.50
 PHMD> lambda,barrier=   50  1.00  2.50
 PHMD> lambda,barrier=   51  0.00  2.50
 PHMD> lambda,barrier=   52  1.00  2.50
 PHMD> lambda,barrier=   53  0.00  2.50
 PHMD> lambda,barrier=   54  0.00  2.50
 PHMD> lambda,barrier=   55  1.00  2.50
 PHMD> lambda,barrier=   56  0.00  2.50
 PHMD> lambda,barrier=   57  1.00  2.50
 PHMD> lambda,barrier=   58  0.00  2.50
 PHMD> lambda,barrier=   59  0.00  2.50
 PHMD> lambda,barrier=   60  0.00  2.50
 PHMD> lambda,barrier=   61  0.00  2.50
 PHMD> lambda,barrier=   62  0.00  2.50
 PHMD> lambda,barrier=   63  0.00  2.50
 PHMD> lambda,barrier=   64  0.00  2.50
 PHMD> lambda,barrier=   65  1.00  2.50
 PHMD> lambda,barrier=   66  0.00  2.50
 PHMD> lambda,barrier=   67  1.00  2.50
 PHMD> lambda,barrier=   68  0.00  2.50
 PHMD> lambda,barrier=   69  1.00  2.50
 PHMD> lambda,barrier=   70  0.00  2.50
 PHMD> lambda,barrier=   71  0.00  2.50
 PHMD> lambda,barrier=   72  1.00  2.50
 PHMD> lambda,barrier=   73  0.00  2.50
 PHMD> lambda,barrier=   74  1.00  2.50
 PHMD> lambda,barrier=   75  0.00  2.50
 PHMD> lambda,barrier=   76  1.00  2.50
 PHMD> lambda,barrier=   77  0.00  2.50
 PHMD> lambda,barrier=   78  1.00  2.50
 PHMD> lambda,barrier=   79  0.00  2.50
 PHMD> lambda,barrier=   80  0.00  2.50
 PHMD> lambda,barrier=   81  1.00  2.50
 PHMD> lambda,barrier=   82  0.00  2.50
 PHMD> lambda,barrier=   83  0.00  2.50
 PHMD> lambda,barrier=   84  1.00  2.50
 PHMD> lambda,barrier=   85  0.00  2.50
 PHMD> lambda,barrier=   86  1.00  2.50
 PHMD> lambda,barrier=   87  0.00  2.50
 PHMD> lambda,barrier=   88  1.00  2.50
 PHMD> lambda,barrier=   89  0.00  2.50
 PHMD> lambda,barrier=   90  1.00  2.50
 PHMD> lambda,barrier=   91  0.00  2.50
 PHMD> lambda,barrier=   92  0.00  2.50
 PHMD> lambda,barrier=   93  1.00  2.50
 PHMD> lambda,barrier=   94  0.00  2.50
 PHMD> lambda,barrier=   95  1.00  2.50
 PHMD> lambda,barrier=   96  0.00  2.50
 PHMD> lambda,barrier=   97  1.00  2.50
 PHMD> lambda,barrier=   98  0.00  2.50
 PHMD> lambda,barrier=   99  1.00  2.50
 PHMD> lambda,barrier=  100  0.00  2.50
 PHMD> lambda,barrier=  101  0.00  2.50
 PHMD> lambda,barrier=  102  0.00  2.50
 PHMD> lambda,barrier=  103  1.00  2.50
 PHMD> lambda,barrier=  104  0.00  2.50
 PHMD> lambda,barrier=  105  1.00  2.50
 PHMD> lambda,barrier=  106  0.00  2.50
 PHMD> lambda,barrier=  107  0.00  2.50
 PHMD> lambda,barrier=  108  0.00  2.50
 PHMD> lambda,barrier=  109  1.00  2.50
 PHMD> lambda,barrier=  110  0.00  2.50
 PHMD> lambda,barrier=  111  0.00  2.50
 PHMD> lambda,barrier=  112  0.00  2.50
 PHMD> lambda,barrier=  113  0.00  2.50
 PHMD> lambda,barrier=  114  0.00  2.50
 PHMD> lambda,barrier=  115  1.00  2.50
 PHMD> lambda,barrier=  116  0.00  2.50
 PHMD> lambda,barrier=  117  1.00  2.50
 PHMD> lambda,barrier=  118  0.00  2.50
 PHMD> lambda,barrier=  119  1.00  2.50
 PHMD> lambda,barrier=  120  0.00  2.50
 PHMD> lambda,barrier=  121  0.00  2.50
 PHMD> lambda,barrier=  122  0.00  2.50
 PHMD> lambda,barrier=  123  1.00  2.50
 PHMD> lambda,barrier=  124  0.00  2.50
 PHMD> lambda,barrier=  125  1.00  2.50
 PHMD> lambda,barrier=  126  0.00  2.50
 PHMD> lambda,barrier=  127  1.00  2.50
 PHMD> lambda,barrier=  128  0.00  2.50
 PHMD> lambda,barrier=  129  0.00  2.50
 PHMD> lambda,barrier=  130  0.00  2.50
 PHMD> lambda,barrier=  131  1.00  2.50
 PHMD> lambda,barrier=  132  0.00  2.50
 PHMD> lambda,barrier=  133  1.00  2.50
 PHMD> lambda,barrier=  134  0.00  2.50
 PHMD> lambda,barrier=  135  0.00  2.50
 PHMD> lambda,barrier=  136  0.00  2.50
 PHMD> lambda,barrier=  137  0.00  2.50
 PHMD> lambda,barrier=  138  1.00  2.50
 PHMD> lambda,barrier=  139  0.00  2.50
 PHMD> lambda,barrier=  140  1.00  2.50
 PHMD> lambda,barrier=  141  0.00  2.50
 PHMD> lambda,barrier=  142  1.00  2.50
 PHMD> lambda,barrier=  143  0.00  2.50
 PHMD> lambda,barrier=  144  0.00  2.50
 PHMD> lambda,barrier=  145  1.00  2.50
 PHMD> lambda,barrier=  146  0.00  2.50
 PHMD> lambda,barrier=  147  1.00  2.50
 PHMD> lambda,barrier=  148  0.00  2.50
 PHMD> lambda,barrier=  149  1.00  2.50
 PHMD> lambda,barrier=  150  0.00  2.50
 PHMD> lambda,barrier=  151  1.00  2.50
 PHMD> lambda,barrier=  152  0.00  2.50
 PHMD> lambda,barrier=  153  1.00  2.50
 PHMD> lambda,barrier=  154  0.00  2.50
 PHMD> lambda,barrier=  155  0.00  2.50
 PHMD> lambda,barrier=  156  1.00  2.50
--------------------------------------------------------------------------------
   2.  CONTROL  DATA  FOR  THE  RUN
--------------------------------------------------------------------------------

default_name

General flags:
     imin    =       0, nmropt  =       0

Nature and format of input:
     ntx     =       1, irest   =       0, ntrx    =       1

Nature and format of output:
     ntxo    =       2, ntpr    =    1000, ntrx    =       1, ntwr    = 1000000
     iwrap   =       0, ntwx    =    1000, ntwv    =       0, ntwe    =       0
     ioutfm  =       1, ntwprt  =       0, idecomp =       0, rbornstat=      0

Potential function:
     ntf     =       2, ntb     =       0, igb     =       8, nsnb    =      25
     ipol    =       0, gbsa    =       0, iesp    =       0
     dielc   =   1.00000, cut     = 999.00000, intdiel =   1.00000
     saltcon =   0.15000, offset  =   0.19514, surften =   0.00500
     rdt     =   0.00000, rgbmax  =  25.00000  extdiel =  78.50000
     alpb  =        0
     gbalphaH  =   0.78844, gbbetaH   =   0.79870,  gbgammaH  =    0.43733
     gbalphaC  =   0.73376, gbbetaC   =   0.50638,  gbgammaC  =    0.20584
     gbalphaN  =   0.50336, gbbetaN   =   0.31683,  gbgammaN  =    0.19292
     gbalphaOS =   0.86781, gbbetaOS  =   0.87664,  gbgammaOS =    0.38788
     gbalphaP  =   1.00000, gbbetaP   =   0.80000,  gbgammaP  =    4.85000
     gb_alpha_hnu  =   0.53705, gb_beta_hnu   =   0.36286,  gb_gamma_hnu  =    0.11670
     gb_alpha_cnu  =   0.33167, gb_beta_cnu   =   0.19684,  gb_gamma_cnu  =    0.09342
     gb_alpha_nnu  =   0.68631, gb_beta_nnu   =   0.46319,  gb_gamma_nnu  =    0.13872
     gb_alpha_onu  =   0.60634, gb_beta_onu   =   0.46301,  gb_gamma_onu  =    0.14226
     gb_alpha_pnu  =   0.41836, gb_beta_pnu   =   0.29005,  gb_gamma_pnu  =    0.10642

Frozen or restrained atoms:
     ibelly  =       0, ntr     =       0

Molecular dynamics:
     nstlim  =   1000000, nscm    =      1000, nrespa  =         1
     t       =   0.00000, dt      =   0.00200, vlimit  =  -1.00000

Langevin dynamics temperature regulation:
     ig      =   13845
     temp0   = 300.00000, tempi   = 300.00000, gamma_ln=   1.00000

SHAKE:
     ntc     =       2, jfastw  =       0
     tol     =   0.00001

--------------------------------------------------------------------------------
   3.  ATOMIC COORDINATES AND VELOCITIES
--------------------------------------------------------------------------------

default_name
 begin time read from input coords =  2000.000 ps

 Number of triangulated 3-point waters found:        0

--------------------------------------------------------------------------------
   4.  RESULTS
 NSTEP =        0   TIME(PS) =       0.000  TEMP(K) =   361.67  PRESS =     0.0
 Etot   =     -2055.2154  EKtot   =      6253.1680  EPtot      =     -8308.3834
 BOND   =      1334.7111  ANGLE   =      3685.0378  DIHED      =      6712.3784
 1-4 NB =      1499.9554  1-4 EEL =     14438.1643  VDWAALS    =     -3295.0576
 EELEC  =     -2576.0280  EGB     =    -30107.5448  RESTRAINT  =         0.0000
 ------------------------------------------------------------------------------

      A V E R A G E S   O V E R    1000 S T E P S

 NSTEP =  1000000   TIME(PS) =    2000.000  TEMP(K) =   300.04  PRESS =     0.0
 Etot   =     -3856.3397  EKtot   =      5187.5974  EPtot      =     -9043.9372
 BOND   =      1375.4719  ANGLE   =      3662.9433  DIHED      =      6750.7951
 1-4 NB =      1499.6481  1-4 EEL =     15320.2960  VDWAALS    =     -3283.0928
 EELEC  =    -21222.6134  EGB     =    -13147.3853  RESTRAINT  =         0.0000
 ------------------------------------------------------------------------------

      R M S  F L U C T U A T I O N S

 NSTEP =  1000000   TIME(PS) =    2000.000  TEMP(K) =     3.24  PRESS =     0.0
 Etot   =        98.6547  EKtot   =        55.9888  EPtot      =        86.1614
 BOND   =        31.4157  ANGLE   =        47.7336  DIHED      =        28.9652
 1-4 NB =        16.3776  1-4 EEL =       105.0537  VDWAALS    =        32.0851
 EELEC  =       847.0652  EGB     =       739.5919  RESTRAINT  =         0.0000
 ------------------------------------------------------------------------------
