-------------------------------------------------------
          Amber 18 PMEMD                              2018
          -------------------------------------------------------

  [-O]verwriting output

File Assignments:

 Here is the input file:

WT.rep18.in md input file, ph = 10.947
&cntrl
    imin = 0
    irest = 0
    ntx = 1
    ntpr = 1000
    ntwx = 1000
    nstlim = 1000000
    dt = 0.002
    ntt = 3
    tempi = 300
    temp0 = 300
    tautp = 2.0
    ig = -1
    ntp = 0
    ntc = 2
    ntf = 2
    cut = 999
    ntb = 0
    igb = 8
    saltcon = 0.15
    nrespa = 1
    iphmd = 1
    gamma_ln = 1.0
    solvph = 10.9473684211
    ntwr = 1000000
    ioutfm = 1
/

Note: ig = -1. Setting random seed to    56127 based on wallclock time in
      microseconds.

--------------------------------------------------------------------------------
   1.  RESOURCE   USE:
--------------------------------------------------------------------------------

 NATOM  =    6981 NTYPES =      14 NBONH =    3542 MBONA  =    3514
 NTHETH =    7914 MTHETA =    4760 NPHIH =   16482 MPHIA  =   15100
 NHPARM =       0 NPARM  =       0 NNB   =   38469 NRES   =     435
 NBONA  =    3514 NTHETA =    4760 NPHIA =   15100 NUMBND =      64
 NUMANG =     152 NPTRA  =     197 NATYP =      32 NPHB   =       0
 IFBOX  =       0 NMXRS  =      24 IFCAP =       0 NEXTRA =       0
 NCOPY  =       0

 Implicit solvent radii are ArgH and AspGluO modified Bondi2 radii (mbondi3)
 Replacing prmtop screening parameters with GBn2 (igb=8) values
 PHMD> simulation pH =   10.95
 PHMD> titr grps     =  156
 PHMD> lambda,barrier=    1  1.00  2.50
 PHMD> lambda,barrier=    2  1.00  2.50
 PHMD> lambda,barrier=    3  1.00  2.50
 PHMD> lambda,barrier=    4  1.00  2.50
 PHMD> lambda,barrier=    5  1.00  2.50
 PHMD> lambda,barrier=    6  1.00  2.50
 PHMD> lambda,barrier=    7  1.00  2.50
 PHMD> lambda,barrier=    8  1.00  2.50
 PHMD> lambda,barrier=    9  1.00  2.50
 PHMD> lambda,barrier=   10  1.00  2.50
 PHMD> lambda,barrier=   11  1.00  2.50
 PHMD> lambda,barrier=   12  1.00  2.50
 PHMD> lambda,barrier=   13  1.00  2.50
 PHMD> lambda,barrier=   14  1.00  2.50
 PHMD> lambda,barrier=   15  1.00  2.50
 PHMD> lambda,barrier=   16  1.00  2.50
 PHMD> lambda,barrier=   17  1.00  2.50
 PHMD> lambda,barrier=   18  1.00  2.50
 PHMD> lambda,barrier=   19  1.00  2.50
 PHMD> lambda,barrier=   20  1.00  2.50
 PHMD> lambda,barrier=   21  1.00  2.50
 PHMD> lambda,barrier=   22  1.00  2.50
 PHMD> lambda,barrier=   23  1.00  2.50
 PHMD> lambda,barrier=   24  1.00  2.50
 PHMD> lambda,barrier=   25  1.00  2.50
 PHMD> lambda,barrier=   26  1.00  2.50
 PHMD> lambda,barrier=   27  1.00  2.50
 PHMD> lambda,barrier=   28  1.00  2.50
 PHMD> lambda,barrier=   29  1.00  2.50
 PHMD> lambda,barrier=   30  1.00  2.50
 PHMD> lambda,barrier=   31  1.00  2.50
 PHMD> lambda,barrier=   32  1.00  2.50
 PHMD> lambda,barrier=   33  1.00  2.50
 PHMD> lambda,barrier=   34  1.00  2.50
 PHMD> lambda,barrier=   35  1.00  2.50
 PHMD> lambda,barrier=   36  1.00  2.50
 PHMD> lambda,barrier=   37  1.00  2.50
 PHMD> lambda,barrier=   38  1.00  2.50
 PHMD> lambda,barrier=   39  1.00  2.50
 PHMD> lambda,barrier=   40  1.00  2.50
 PHMD> lambda,barrier=   41  1.00  2.50
 PHMD> lambda,barrier=   42  1.00  2.50
 PHMD> lambda,barrier=   43  1.00  2.50
 PHMD> lambda,barrier=   44  1.00  2.50
 PHMD> lambda,barrier=   45  1.00  2.50
 PHMD> lambda,barrier=   46  1.00  2.50
 PHMD> lambda,barrier=   47  1.00  2.50
 PHMD> lambda,barrier=   48  1.00  2.50
 PHMD> lambda,barrier=   49  1.00  2.50
 PHMD> lambda,barrier=   50  1.00  2.50
 PHMD> lambda,barrier=   51  1.00  2.50
 PHMD> lambda,barrier=   52  1.00  2.50
 PHMD> lambda,barrier=   53  1.00  2.50
 PHMD> lambda,barrier=   54  1.00  2.50
 PHMD> lambda,barrier=   55  1.00  2.50
 PHMD> lambda,barrier=   56  1.00  2.50
 PHMD> lambda,barrier=   57  1.00  2.50
 PHMD> lambda,barrier=   58  1.00  2.50
 PHMD> lambda,barrier=   59  1.00  2.50
 PHMD> lambda,barrier=   60  1.00  2.50
 PHMD> lambda,barrier=   61  1.00  2.50
 PHMD> lambda,barrier=   62  1.00  2.50
 PHMD> lambda,barrier=   63  1.00  2.50
 PHMD> lambda,barrier=   64  1.00  2.50
 PHMD> lambda,barrier=   65  1.00  2.50
 PHMD> lambda,barrier=   66  1.00  2.50
 PHMD> lambda,barrier=   67  1.00  2.50
 PHMD> lambda,barrier=   68  1.00  2.50
 PHMD> lambda,barrier=   69  1.00  2.50
 PHMD> lambda,barrier=   70  1.00  2.50
 PHMD> lambda,barrier=   71  1.00  2.50
 PHMD> lambda,barrier=   72  1.00  2.50
 PHMD> lambda,barrier=   73  1.00  2.50
 PHMD> lambda,barrier=   74  1.00  2.50
 PHMD> lambda,barrier=   75  1.00  2.50
 PHMD> lambda,barrier=   76  1.00  2.50
 PHMD> lambda,barrier=   77  1.00  2.50
 PHMD> lambda,barrier=   78  1.00  2.50
 PHMD> lambda,barrier=   79  1.00  2.50
 PHMD> lambda,barrier=   80  1.00  2.50
 PHMD> lambda,barrier=   81  1.00  2.50
 PHMD> lambda,barrier=   82  1.00  2.50
 PHMD> lambda,barrier=   83  1.00  2.50
 PHMD> lambda,barrier=   84  1.00  2.50
 PHMD> lambda,barrier=   85  1.00  2.50
 PHMD> lambda,barrier=   86  1.00  2.50
 PHMD> lambda,barrier=   87  1.00  2.50
 PHMD> lambda,barrier=   88  1.00  2.50
 PHMD> lambda,barrier=   89  1.00  2.50
 PHMD> lambda,barrier=   90  1.00  2.50
 PHMD> lambda,barrier=   91  1.00  2.50
 PHMD> lambda,barrier=   92  1.00  2.50
 PHMD> lambda,barrier=   93  1.00  2.50
 PHMD> lambda,barrier=   94  1.00  2.50
 PHMD> lambda,barrier=   95  1.00  2.50
 PHMD> lambda,barrier=   96  1.00  2.50
 PHMD> lambda,barrier=   97  1.00  2.50
 PHMD> lambda,barrier=   98  1.00  2.50
 PHMD> lambda,barrier=   99  1.00  2.50
 PHMD> lambda,barrier=  100  1.00  2.50
 PHMD> lambda,barrier=  101  1.00  2.50
 PHMD> lambda,barrier=  102  1.00  2.50
 PHMD> lambda,barrier=  103  1.00  2.50
 PHMD> lambda,barrier=  104  1.00  2.50
 PHMD> lambda,barrier=  105  1.00  2.50
 PHMD> lambda,barrier=  106  1.00  2.50
 PHMD> lambda,barrier=  107  1.00  2.50
 PHMD> lambda,barrier=  108  1.00  2.50
 PHMD> lambda,barrier=  109  1.00  2.50
 PHMD> lambda,barrier=  110  1.00  2.50
 PHMD> lambda,barrier=  111  1.00  2.50
 PHMD> lambda,barrier=  112  1.00  2.50
 PHMD> lambda,barrier=  113  1.00  2.50
 PHMD> lambda,barrier=  114  1.00  2.50
 PHMD> lambda,barrier=  115  1.00  2.50
 PHMD> lambda,barrier=  116  1.00  2.50
 PHMD> lambda,barrier=  117  1.00  2.50
 PHMD> lambda,barrier=  118  1.00  2.50
 PHMD> lambda,barrier=  119  1.00  2.50
 PHMD> lambda,barrier=  120  1.00  2.50
 PHMD> lambda,barrier=  121  1.00  2.50
 PHMD> lambda,barrier=  122  1.00  2.50
 PHMD> lambda,barrier=  123  1.00  2.50
 PHMD> lambda,barrier=  124  1.00  2.50
 PHMD> lambda,barrier=  125  1.00  2.50
 PHMD> lambda,barrier=  126  1.00  2.50
 PHMD> lambda,barrier=  127  1.00  2.50
 PHMD> lambda,barrier=  128  1.00  2.50
 PHMD> lambda,barrier=  129  1.00  2.50
 PHMD> lambda,barrier=  130  1.00  2.50
 PHMD> lambda,barrier=  131  1.00  2.50
 PHMD> lambda,barrier=  132  1.00  2.50
 PHMD> lambda,barrier=  133  1.00  2.50
 PHMD> lambda,barrier=  134  1.00  2.50
 PHMD> lambda,barrier=  135  1.00  2.50
 PHMD> lambda,barrier=  136  1.00  2.50
 PHMD> lambda,barrier=  137  1.00  2.50
 PHMD> lambda,barrier=  138  1.00  2.50
 PHMD> lambda,barrier=  139  1.00  2.50
 PHMD> lambda,barrier=  140  1.00  2.50
 PHMD> lambda,barrier=  141  1.00  2.50
 PHMD> lambda,barrier=  142  1.00  2.50
 PHMD> lambda,barrier=  143  1.00  2.50
 PHMD> lambda,barrier=  144  1.00  2.50
 PHMD> lambda,barrier=  145  1.00  2.50
 PHMD> lambda,barrier=  146  1.00  2.50
 PHMD> lambda,barrier=  147  1.00  2.50
 PHMD> lambda,barrier=  148  1.00  2.50
 PHMD> lambda,barrier=  149  1.00  2.50
 PHMD> lambda,barrier=  150  1.00  2.50
 PHMD> lambda,barrier=  151  1.00  2.50
 PHMD> lambda,barrier=  152  1.00  2.50
 PHMD> lambda,barrier=  153  1.00  2.50
 PHMD> lambda,barrier=  154  1.00  2.50
 PHMD> lambda,barrier=  155  1.00  2.50
 PHMD> lambda,barrier=  156  1.00  2.50
--------------------------------------------------------------------------------
   2.  CONTROL  DATA  FOR  THE  RUN
--------------------------------------------------------------------------------

default_name

General flags:
     imin    =       0, nmropt  =       0

Nature and format of input:
     ntx     =       1, irest   =       0, ntrx    =       1

Nature and format of output:
     ntxo    =       2, ntpr    =    1000, ntrx    =       1, ntwr    = 1000000
     iwrap   =       0, ntwx    =    1000, ntwv    =       0, ntwe    =       0
     ioutfm  =       1, ntwprt  =       0, idecomp =       0, rbornstat=      0

Potential function:
     ntf     =       2, ntb     =       0, igb     =       8, nsnb    =      25
     ipol    =       0, gbsa    =       0, iesp    =       0
     dielc   =   1.00000, cut     = 999.00000, intdiel =   1.00000
     saltcon =   0.15000, offset  =   0.19514, surften =   0.00500
     rdt     =   0.00000, rgbmax  =  25.00000  extdiel =  78.50000
     alpb  =        0
     gbalphaH  =   0.78844, gbbetaH   =   0.79870,  gbgammaH  =    0.43733
     gbalphaC  =   0.73376, gbbetaC   =   0.50638,  gbgammaC  =    0.20584
     gbalphaN  =   0.50336, gbbetaN   =   0.31683,  gbgammaN  =    0.19292
     gbalphaOS =   0.86781, gbbetaOS  =   0.87664,  gbgammaOS =    0.38788
     gbalphaP  =   1.00000, gbbetaP   =   0.80000,  gbgammaP  =    4.85000
     gb_alpha_hnu  =   0.53705, gb_beta_hnu   =   0.36286,  gb_gamma_hnu  =    0.11670
     gb_alpha_cnu  =   0.33167, gb_beta_cnu   =   0.19684,  gb_gamma_cnu  =    0.09342
     gb_alpha_nnu  =   0.68631, gb_beta_nnu   =   0.46319,  gb_gamma_nnu  =    0.13872
     gb_alpha_onu  =   0.60634, gb_beta_onu   =   0.46301,  gb_gamma_onu  =    0.14226
     gb_alpha_pnu  =   0.41836, gb_beta_pnu   =   0.29005,  gb_gamma_pnu  =    0.10642

Frozen or restrained atoms:
     ibelly  =       0, ntr     =       0

Molecular dynamics:
     nstlim  =   1000000, nscm    =      1000, nrespa  =         1
     t       =   0.00000, dt      =   0.00200, vlimit  =  -1.00000

Langevin dynamics temperature regulation:
     ig      =   56127
     temp0   = 300.00000, tempi   = 300.00000, gamma_ln=   1.00000

SHAKE:
     ntc     =       2, jfastw  =       0
     tol     =   0.00001

--------------------------------------------------------------------------------
   3.  ATOMIC COORDINATES AND VELOCITIES
--------------------------------------------------------------------------------

default_name
 begin time read from input coords =  2000.000 ps

 Number of triangulated 3-point waters found:        0

--------------------------------------------------------------------------------
   4.  RESULTS
 NSTEP =        0   TIME(PS) =       0.000  TEMP(K) =   364.16  PRESS =     0.0
 Etot   =     -2973.6624  EKtot   =      6296.1475  EPtot      =     -9269.8099
 BOND   =      1386.8858  ANGLE   =      3615.8476  DIHED      =      6795.5052
 1-4 NB =      1492.4963  1-4 EEL =     14415.7410  VDWAALS    =     -3280.7828
 EELEC  =    -22414.0126  EGB     =    -11281.4904  RESTRAINT  =         0.0000
 ------------------------------------------------------------------------------

      A V E R A G E S   O V E R    1000 S T E P S

 NSTEP =  1000000   TIME(PS) =    2000.000  TEMP(K) =   299.98  PRESS =     0.0
 Etot   =     -4031.1228  EKtot   =      5186.5806  EPtot      =     -9217.7034
 BOND   =      1378.0568  ANGLE   =      3668.1230  DIHED      =      6760.7485
 1-4 NB =      1497.1927  1-4 EEL =     16049.8819  VDWAALS    =     -3266.0155
 EELEC  =    -28771.0805  EGB     =     -6534.6104  RESTRAINT  =         0.0000
 ------------------------------------------------------------------------------

      R M S  F L U C T U A T I O N S

 NSTEP =  1000000   TIME(PS) =    2000.000  TEMP(K) =     3.29  PRESS =     0.0
 Etot   =        93.0272  EKtot   =        56.8831  EPtot      =        74.2256
 BOND   =        31.7004  ANGLE   =        47.6424  DIHED      =        29.2057
 1-4 NB =        15.7168  1-4 EEL =        78.0167  VDWAALS    =        39.7845
 EELEC  =       206.8442  EGB     =       173.1148  RESTRAINT  =         0.0000
 ------------------------------------------------------------------------------
