-------------------------------------------------------
          Amber 18 PMEMD                              2018
          -------------------------------------------------------

  [-O]verwriting output

File Assignments:

 Here is the input file:

A NPT simulation for common production-level simulations
 &cntrl
    imin=0,        ! No minimization
    irest=1,       ! This IS a restart of an old MD simulation
    ntx=5,         ! So our inpcrd file has velocities

    ! Temperature control
    ntt=3,         ! Langevin dynamics
    gamma_ln=1.0,  ! Friction coefficient (ps^-1)
    temp0=310.15,   ! Target temperature

    ! Potential energy control
    cut=12.0,      ! Nonbonded cutoff, in Angstroms
    fswitch=10.0,  ! Force-based switching

    ! MD settings
    nstlim=1000000, ! 1M steps, 2 ns total
    dt=0.002,      ! time step (ps)

    ! SHAKE
    ntc=2,         ! Constrain bonds containing hydrogen
    ntf=2,         ! Do not calculate forces of bonds containing hydrogen

    ! Control how often information is printed
    ntpr=1000,     ! Print energies every 1K steps (2 ps)
    ntwx=1000,     ! Print coordinates every 1K steps to the trajectory
    ntwr=50000,    ! Print a restart file every 50K steps (100 ps)
!   ntwv=-1,       ! Uncomment to also print velocities to trajectory
!   ntwf=-1,       ! Uncomment to also print forces to trajectory
    ntxo=2,        ! Write NetCDF format
    ioutfm=1,      ! Write NetCDF format (always do this!)

    ! Wrap coordinates when printing them to the same unit cell
    iwrap=1,

    ! Constant pressure control.
    barostat=2,    ! MC barostat... change to 1 for Berendsen
    ntp=1,         ! 1=isotropic, 2=anisotropic, 3=semi-isotropic w/ surften
    pres0=1.0,     ! Target external pressure, in bar

    ! Set water atom/residue names for SETTLE recognition
    watnam='WAT',  ! Water residues are named WAT
    owtnm='O',     ! Water oxygens are named O
 /

 &ewald
    vdwmeth = 0,
 /

Note: ig = -1. Setting random seed to   496550 based on wallclock time in
      microseconds.

--------------------------------------------------------------------------------
   1.  RESOURCE   USE:
--------------------------------------------------------------------------------

 getting box info from netcdf restart file
 NATOM  =  143672 NTYPES =      18 NBONH =  139971 MBONA  =    3516
 NTHETH =    7792 MTHETA =    4764 NPHIH =   15832 MPHIA  =   15142
 NHPARM =       0 NPARM  =       0 NNB   =  220268 NRES   =   46208
 NBONA  =    3516 NTHETA =    4764 NPHIA =   15142 NUMBND =      69
 NUMANG =     155 NPTRA  =     196 NATYP =      38 NPHB   =       1
 IFBOX  =       1 NMXRS  =      24 IFCAP =       0 NEXTRA =       0
 NCOPY  =       0

     BOX TYPE: RECTILINEAR

--------------------------------------------------------------------------------
   2.  CONTROL  DATA  FOR  THE  RUN
--------------------------------------------------------------------------------

default_name

General flags:
     imin    =       0, nmropt  =       0

Nature and format of input:
     ntx     =       5, irest   =       1, ntrx    =       1

Nature and format of output:
     ntxo    =       2, ntpr    =    1000, ntrx    =       1, ntwr    =   50000
     iwrap   =       1, ntwx    =    1000, ntwv    =       0, ntwe    =       0
     ioutfm  =       1, ntwprt  =       0, idecomp =       0, rbornstat=      0

Potential function:
     ntf     =       2, ntb     =       2, igb     =       0, nsnb    =      25
     ipol    =       0, gbsa    =       0, iesp    =       0
     dielc   =   1.00000, cut     =  12.00000, intdiel =   1.00000

Frozen or restrained atoms:
     ibelly  =       0, ntr     =       0

Molecular dynamics:
     nstlim  =   1000000, nscm    =      1000, nrespa  =         1
     t       =   0.00000, dt      =   0.00200, vlimit  =  -1.00000

Langevin dynamics temperature regulation:
     ig      =  496550
     temp0   = 310.15000, tempi   =   0.00000, gamma_ln=   1.00000

Pressure regulation:
     ntp     =       1
     pres0   =   1.00000, comp    =  44.60000, taup    =   1.00000
     Monte-Carlo Barostat:
     mcbarint  =     100

SHAKE:
     ntc     =       2, jfastw  =       0
     tol     =   0.00001

Ewald parameters:
     verbose =       0, ew_type =       0, nbflag  =       1, use_pme =       1
     vdwmeth =       0, eedmeth =       1, netfrc  =       1
     Box X =  114.294   Box Y =  113.943   Box Z =  113.049
     Alpha =   90.000   Beta  =   90.000   Gamma =   90.000
     NFFT1 =  120       NFFT2 =  120       NFFT3 =  120
     Cutoff=   12.000   Tol   =0.100E-04
     Ewald Coefficient =  0.22664
     Interpolation order =    4

--------------------------------------------------------------------------------
   3.  ATOMIC COORDINATES AND VELOCITIES
--------------------------------------------------------------------------------

default_name
 begin time read from input coords =  2200.000 ps

 Number of triangulated 3-point waters found:    45513

     Sum of charges from parm topology file =  -0.00000023
     Forcing neutrality...

--------------------------------------------------------------------------------
   4.  RESULTS
 NSTEP =     1000   TIME(PS) =    2202.000  TEMP(K) =   310.34  PRESS =     0.0
 Etot   =   -369020.3635  EKtot   =     89743.8516  EPtot      =   -458764.2150
 BOND   =      1372.7415  ANGLE   =      3556.7451  DIHED      =      5581.2426
 1-4 NB =      1578.1107  1-4 EEL =     16247.6219  VDWAALS    =     63224.3045
 EELEC  =   -550324.9814  EHBOND  =         0.0000  RESTRAINT  =         0.0000
 EKCMT  =         0.0000  VIRIAL  =         0.0000  VOLUME     =   1472241.0301
                                                    Density    =         0.9910
 ------------------------------------------------------------------------------

      A V E R A G E S   O V E R    1000 S T E P S

 NSTEP =  1000000   TIME(PS) =    4200.000  TEMP(K) =   310.19  PRESS =     0.0
 Etot   =   -368857.2995  EKtot   =     89699.8705  EPtot      =   -458557.1700
 BOND   =      1367.4311  ANGLE   =      3658.2961  DIHED      =      5543.5520
 1-4 NB =      1572.1507  1-4 EEL =     16264.1955  VDWAALS    =     62980.1727
 EELEC  =   -549942.9681  EHBOND  =         0.0000  RESTRAINT  =         0.0000
 EKCMT  =         0.0000  VIRIAL  =         0.0000  VOLUME     =   1474553.3484
                                                    Density    =         0.9894
 ------------------------------------------------------------------------------

      R M S  F L U C T U A T I O N S

 NSTEP =  1000000   TIME(PS) =    4200.000  TEMP(K) =     0.84  PRESS =     0.0
 Etot   =       423.2003  EKtot   =       241.8225  EPtot      =       337.3459
 BOND   =        31.7161  ANGLE   =        48.7917  DIHED      =        26.8921
 1-4 NB =        17.1161  1-4 EEL =        49.9880  VDWAALS    =       332.0366
 EELEC  =       535.8146  EHBOND  =         0.0000  RESTRAINT  =         0.0000
 EKCMT  =         0.0000  VIRIAL  =         0.0000  VOLUME     =      1987.1289
                                                    Density    =         0.0013
 ------------------------------------------------------------------------------
